L6/1726529/GD.dss
! GERACAO DISTRIBUIDA — gerada de UGBT_tab e UGMT_tab
! Unidades com potencia nula sao omitidas (gerariam NaN).
! 77 unidades descartadas por potencia nula.
! 267 unidades de BT realocadas para o secundario do transformador (rede secundaria nao modelada).
! 0 unidades descartadas por ponto de conexao ausente da rede.
! irradiance=1 — ver o docstring: 1,0 e meio-dia de ceu claro, nao a ponta de carga.
! 6 barras tiveram a GD limitada a capacidade do transformador (4 kW cortados).
! inversores em pf=1 — ver o docstring de _pv: 0,92 e capacidade exigida pelo PRODIST, nao despacho.
! 0 unidades de MT ligadas pelo PAC da carga (casadas por CEG_GD): o PAC da UGMT nao existe na SSDMT.
New PVSystem.GD_d74622f5dfd71247e1209dfcd8f4cef0845d37dd8b5cbde48f111a82e10c3064_1 phases=1 bus1=node_414415827.1.4 conn=wye kv=0.1270 pf=1 pmpp=0.20 kva=0.20 irradiance=1 temperature=25 %cutin=20 %cutout=20 effcurve=MyEff P-TCurve=MyPvsT Daily=IRRAD_DIA TDaily=TEMP_DIA
New PVSystem.GD_d74622f5dfd71247e1209dfcd8f4cef0845d37dd8b5cbde48f111a82e10c3064_2 phases=1 bus1=node_414415827.2.4 conn=wye kv=0.1270 pf=1 pmpp=0.20 kva=0.20 irradiance=1 temperature=25 %cutin=20 %cutout=20 effcurve=MyEff P-TCurve=MyPvsT Daily=IRRAD_DIA TDaily=TEMP_DIA
New PVSystem.GD_d74622f5dfd71247e1209dfcd8f4cef0845d37dd8b5cbde48f111a82e10c3064_3 phases=1 bus1=node_414415827.3.4 conn=wye kv=0.1270 pf=1 pmpp=0.20 kva=0.20 irradiance=1 temperature=25 %cutin=20 %cutout=20 effcurve=MyEff P-TCurve=MyPvsT Daily=IRRAD_DIA TDaily=TEMP_DIA
New PVSystem.GD_37d3594010aafaca28e8b54a9985a84d0a355bda72a51dac37e87e1537ea49ec_1 phases=1 bus1=node_414781430.1.4 conn=wye kv=0.1270 pf=1 pmpp=0.97 kva=0.97 irradiance=1 temperature=25 %cutin=20 %cutout=20 effcurve=MyEff P-TCurve=MyPvsT Daily=IRRAD_DIA TDaily=TEMP_DIA
New PVSystem.GD_37d3594010aafaca28e8b54a9985a84d0a355bda72a51dac37e87e1537ea49ec_2 phases=1 bus1=node_414781430.2.4 conn=wye kv=0.1270 pf=1 pmpp=0.97 kva=0.97 irradiance=1 temperature=25 %cutin=20 %cutout=20 effcurve=MyEff P-TCurve=MyPvsT Daily=IRRAD_DIA TDaily=TEMP_DIA
New PVSystem.GD_37d3594010aafaca28e8b54a9985a84d0a355bda72a51dac37e87e1537ea49ec_3 phases=1 bus1=node_414781430.3.4 conn=wye kv=0.1270 pf=1 pmpp=0.97 kva=0.97 irradiance=1 temperature=25 %cutin=20 %cutout=20 effcurve=MyEff P-TCurve=MyPvsT Daily=IRRAD_DIA TDaily=TEMP_DIA
New PVSystem.GD_e4ac2c0930b0410bd05690fe0fb8c84501f3ec6e003081742052731f55284293_1 phases=1 bus1=node_414415719.1.4 conn=wye kv=0.1200 pf=1 pmpp=2.59 kva=2.59 irradiance=1 temperature=25 %cutin=20 %cutout=20 effcurve=MyEff P-TCurve=MyPvsT Daily=IRRAD_DIA TDaily=TEMP_DIA
New PVSystem.GD_e4ac2c0930b0410bd05690fe0fb8c84501f3ec6e003081742052731f55284293_2 phases=1 bus1=node_414415719.2.4 conn=wye kv=0.1200 pf=1 pmpp=2.59 kva=2.59 irradiance=1 temperature=25 %cutin=20 %cutout=20 effcurve=MyEff P-TCurve=MyPvsT Daily=IRRAD_DIA TDaily=TEMP_DIA
New PVSystem.GD_b8c96ca860c7ca48ae0fa0b0507b9a0d11291c967af04d9621014ec78c2b7357_1 phases=1 bus1=node_414415389.1.4 conn=wye kv=0.1200 pf=1 pmpp=2.82 kva=2.82 irradiance=1 temperature=25 %cutin=20 %cutout=20 effcurve=MyEff P-TCurve=MyPvsT Daily=IRRAD_DIA TDaily=TEMP_DIA
New PVSystem.GD_b8c96ca860c7ca48ae0fa0b0507b9a0d11291c967af04d9621014ec78c2b7357_2 phases=1 bus1=node_414415389.2.4 conn=wye kv=0.1200 pf=1 pmpp=2.82 kva=2.82 irradiance=1 temperature=25 %cutin=20 %cutout=20 effcurve=MyEff P-TCurve=MyPvsT Daily=IRRAD_DIA TDaily=TEMP_DIA
New PVSystem.GD_ee035b20c66f17d1f03471c7b8f114ff45c8ebaa696a94feaed1a5f6c54474a5_1 phases=1 bus1=node_414415722.1.4 conn=wye kv=0.1200 pf=1 pmpp=4.03 kva=4.03 irradiance=1 temperature=25 %cutin=20 %cutout=20 effcurve=MyEff P-TCurve=MyPvsT Daily=IRRAD_DIA TDaily=TEMP_DIA
New PVSystem.GD_ee035b20c66f17d1f03471c7b8f114ff45c8ebaa696a94feaed1a5f6c54474a5_2 phases=1 bus1=node_414415722.2.4 conn=wye kv=0.1200 pf=1 pmpp=4.03 kva=4.03 irradiance=1 temperature=25 %cutin=20 %cutout=20 effcurve=MyEff P-TCurve=MyPvsT Daily=IRRAD_DIA TDaily=TEMP_DIA
New PVSystem.GD_42c5bdf2bc7687911bdecebb51582070db9971b5292cff81aa4c8dbf14a3ded4_1 phases=1 bus1=node_414415065.1.4 conn=wye kv=0.1200 pf=1 pmpp=4.93 kva=4.93 irradiance=1 temperature=25 %cutin=20 %cutout=20 effcurve=MyEff P-TCurve=MyPvsT Daily=IRRAD_DIA TDaily=TEMP_DIA
New PVSystem.GD_42c5bdf2bc7687911bdecebb51582070db9971b5292cff81aa4c8dbf14a3ded4_2 phases=1 bus1=node_414415065.2.4 conn=wye kv=0.1200 pf=1 pmpp=4.93 kva=4.93 irradiance=1 temperature=25 %cutin=20 %cutout=20 effcurve=MyEff P-TCurve=MyPvsT Daily=IRRAD_DIA TDaily=TEMP_DIA
New PVSystem.GD_8290469f6a1125343ea5e599903222021052a6f51ff1301919c893d4ed241565_1 phases=1 bus1=node_414415065.1.4 conn=wye kv=0.1200 pf=1 pmpp=10.71 kva=10.71 irradiance=1 temperature=25 %cutin=20 %cutout=20 effcurve=MyEff P-TCurve=MyPvsT Daily=IRRAD_DIA TDaily=TEMP_DIA
New PVSystem.GD_8290469f6a1125343ea5e599903222021052a6f51ff1301919c893d4ed241565_2 phases=1 bus1=node_414415065.2.4 conn=wye kv=0.1200 pf=1 pmpp=10.71 kva=10.71 irradiance=1 temperature=25 %cutin=20 %cutout=20 effcurve=MyEff P-TCurve=MyPvsT Daily=IRRAD_DIA TDaily=TEMP_DIA
New PVSystem.GD_7e9667abac02ab773a1b8d5fd936afda1dc04e220827ef91353452c6389281de_1 phases=1 bus1=node_414415131.1.4 conn=wye kv=0.1200 pf=1 pmpp=2.03 kva=2.03 irradiance=1 temperature=25 %cutin=20 %cutout=20 effcurve=MyEff P-TCurve=MyPvsT Daily=IRRAD_DIA TDaily=TEMP_DIA
New PVSystem.GD_7e9667abac02ab773a1b8d5fd936afda1dc04e220827ef91353452c6389281de_2 phases=1 bus1=node_414415131.2.4 conn=wye kv=0.1200 pf=1 pmpp=2.03 kva=2.03 irradiance=1 temperature=25 %cutin=20 %cutout=20 effcurve=MyEff P-TCurve=MyPvsT Daily=IRRAD_DIA TDaily=TEMP_DIA
New PVSystem.GD_f8ea867b6a22ec49dbb3c043b11962bcd206ee8062b4e1c00db33319d4fc2d09_1 phases=1 bus1=node_414417936.1.4 conn=wye kv=0.1200 pf=1 pmpp=1.61 kva=1.61 irradiance=1 temperature=25 %cutin=20 %cutout=20 effcurve=MyEff P-TCurve=MyPvsT Daily=IRRAD_DIA TDaily=TEMP_DIA
New PVSystem.GD_f8ea867b6a22ec49dbb3c043b11962bcd206ee8062b4e1c00db33319d4fc2d09_2 phases=1 bus1=node_414417936.2.4 conn=wye kv=0.1200 pf=1 pmpp=1.61 kva=1.61 irradiance=1 temperature=25 %cutin=20 %cutout=20 effcurve=MyEff P-TCurve=MyPvsT Daily=IRRAD_DIA TDaily=TEMP_DIA
New PVSystem.GD_993bcd0ea19818a5c52b40750238929876bf57e4189de975aca51067f2e4c3ab_1 phases=1 bus1=node_414415068.1.4 conn=wye kv=0.1200 pf=1 pmpp=2.66 kva=2.66 irradiance=1 temperature=25 %cutin=20 %cutout=20 effcurve=MyEff P-TCurve=MyPvsT Daily=IRRAD_DIA TDaily=TEMP_DIA
New PVSystem.GD_993bcd0ea19818a5c52b40750238929876bf57e4189de975aca51067f2e4c3ab_2 phases=1 bus1=node_414415068.2.4 conn=wye kv=0.1200 pf=1 pmpp=2.66 kva=2.66 irradiance=1 temperature=25 %cutin=20 %cutout=20 effcurve=MyEff P-TCurve=MyPvsT Daily=IRRAD_DIA TDaily=TEMP_DIA
New PVSystem.GD_11e42201aeaa4dceb4b9be5b9bed866c23e5a231a3cfe04ed5821f86db33999c_1 phases=1 bus1=node_414442511.1.4 conn=wye kv=0.1200 pf=1 pmpp=3.21 kva=3.21 irradiance=1 temperature=25 %cutin=20 %cutout=20 effcurve=MyEff P-TCurve=MyPvsT Daily=IRRAD_DIA TDaily=TEMP_DIA
New PVSystem.GD_11e42201aeaa4dceb4b9be5b9bed866c23e5a231a3cfe04ed5821f86db33999c_2 phases=1 bus1=node_414442511.2.4 conn=wye kv=0.1200 pf=1 pmpp=3.21 kva=3.21 irradiance=1 temperature=25 %cutin=20 %cutout=20 effcurve=MyEff P-TCurve=MyPvsT Daily=IRRAD_DIA TDaily=TEMP_DIA
New PVSystem.GD_ec2094aedd2fde0fa397c7877535541e9a5558e0b0e838339a6c40ba6f2387b6_1 phases=1 bus1=node_414461406.1.4 conn=wye kv=0.1200 pf=1 pmpp=1.89 kva=1.89 irradiance=1 temperature=25 %cutin=20 %cutout=20 effcurve=MyEff P-TCurve=MyPvsT Daily=IRRAD_DIA TDaily=TEMP_DIA
New PVSystem.GD_ec2094aedd2fde0fa397c7877535541e9a5558e0b0e838339a6c40ba6f2387b6_2 phases=1 bus1=node_414461406.2.4 conn=wye kv=0.1200 pf=1 pmpp=1.89 kva=1.89 irradiance=1 temperature=25 %cutin=20 %cutout=20 effcurve=MyEff P-TCurve=MyPvsT Daily=IRRAD_DIA TDaily=TEMP_DIA
New PVSystem.GD_ba14e5491cae025ebb81c86f3b59a4c5c66d2ec3d80f9f2997d28eaa0feedd5a_1 phases=1 bus1=node_414415104.1.4 conn=wye kv=0.1200 pf=1 pmpp=1.90 kva=1.90 irradiance=1 temperature=25 %cutin=20 %cutout=20 effcurve=MyEff P-TCurve=MyPvsT Daily=IRRAD_DIA TDaily=TEMP_DIA
New PVSystem.GD_ba14e5491cae025ebb81c86f3b59a4c5c66d2ec3d80f9f2997d28eaa0feedd5a_2 phases=1 bus1=node_414415104.2.4 conn=wye kv=0.1200 pf=1 pmpp=1.90 kva=1.90 irradiance=1 temperature=25 %cutin=20 %cutout=20 effcurve=MyEff P-TCurve=MyPvsT Daily=IRRAD_DIA TDaily=TEMP_DIA
New PVSystem.GD_9301ddfd42a3d1a9ca781900437deda0fc5c83cf0901412637dc91bfd79dda47_1 phases=1 bus1=node_414415395.1.4 conn=wye kv=0.1200 pf=1 pmpp=1.15 kva=1.15 irradiance=1 temperature=25 %cutin=20 %cutout=20 effcurve=MyEff P-TCurve=MyPvsT Daily=IRRAD_DIA TDaily=TEMP_DIA
New PVSystem.GD_9301ddfd42a3d1a9ca781900437deda0fc5c83cf0901412637dc91bfd79dda47_2 phases=1 bus1=node_414415395.2.4 conn=wye kv=0.1200 pf=1 pmpp=1.15 kva=1.15 irradiance=1 temperature=25 %cutin=20 %cutout=20 effcurve=MyEff P-TCurve=MyPvsT Daily=IRRAD_DIA TDaily=TEMP_DIA
New PVSystem.GD_f8f671de8829e24bf5ef1e75e6bf4e349d4f2fb065c4d550daf098a09a0d590f_1 phases=1 bus1=node_414414909.1.4 conn=wye kv=0.1200 pf=1 pmpp=1.46 kva=1.46 irradiance=1 temperature=25 %cutin=20 %cutout=20 effcurve=MyEff P-TCurve=MyPvsT Daily=IRRAD_DIA TDaily=TEMP_DIA
New PVSystem.GD_f8f671de8829e24bf5ef1e75e6bf4e349d4f2fb065c4d550daf098a09a0d590f_2 phases=1 bus1=node_414414909.2.4 conn=wye kv=0.1200 pf=1 pmpp=1.46 kva=1.46 irradiance=1 temperature=25 %cutin=20 %cutout=20 effcurve=MyEff P-TCurve=MyPvsT Daily=IRRAD_DIA TDaily=TEMP_DIA
New PVSystem.GD_27ac2f0548a05f23e3deb37c8ebd2ac6c799c693e3ab1bee0ed92a5704ad3b20_1 phases=1 bus1=node_415370974.1.4 conn=wye kv=0.1200 pf=1 pmpp=2.88 kva=2.88 irradiance=1 temperature=25 %cutin=20 %cutout=20 effcurve=MyEff P-TCurve=MyPvsT Daily=IRRAD_DIA TDaily=TEMP_DIA
New PVSystem.GD_27ac2f0548a05f23e3deb37c8ebd2ac6c799c693e3ab1bee0ed92a5704ad3b20_2 phases=1 bus1=node_415370974.2.4 conn=wye kv=0.1200 pf=1 pmpp=2.88 kva=2.88 irradiance=1 temperature=25 %cutin=20 %cutout=20 effcurve=MyEff P-TCurve=MyPvsT Daily=IRRAD_DIA TDaily=TEMP_DIA
New PVSystem.GD_9f9afbe9ca057eea3c7ed3b62c81259290d552556d6398e6f411b8427a52648e_1 phases=1 bus1=node_414415401.1.4 conn=wye kv=0.1200 pf=1 pmpp=2.68 kva=2.68 irradiance=1 temperature=25 %cutin=20 %cutout=20 effcurve=MyEff P-TCurve=MyPvsT Daily=IRRAD_DIA TDaily=TEMP_DIA
New PVSystem.GD_9f9afbe9ca057eea3c7ed3b62c81259290d552556d6398e6f411b8427a52648e_2 phases=1 bus1=node_414415401.2.4 conn=wye kv=0.1200 pf=1 pmpp=2.68 kva=2.68 irradiance=1 temperature=25 %cutin=20 %cutout=20 effcurve=MyEff P-TCurve=MyPvsT Daily=IRRAD_DIA TDaily=TEMP_DIA
New PVSystem.GD_78119ecfc8bb28e411b22dae0c81047510084157b89add6434f57aa710bee8e7_1 phases=1 bus1=node_415561657.1.4 conn=wye kv=0.1200 pf=1 pmpp=1.63 kva=1.63 irradiance=1 temperature=25 %cutin=20 %cutout=20 effcurve=MyEff P-TCurve=MyPvsT Daily=IRRAD_DIA TDaily=TEMP_DIA
New PVSystem.GD_78119ecfc8bb28e411b22dae0c81047510084157b89add6434f57aa710bee8e7_2 phases=1 bus1=node_415561657.2.4 conn=wye kv=0.1200 pf=1 pmpp=1.63 kva=1.63 irradiance=1 temperature=25 %cutin=20 %cutout=20 effcurve=MyEff P-TCurve=MyPvsT Daily=IRRAD_DIA TDaily=TEMP_DIA
New PVSystem.GD_8a2b8af5565220162a1ae3d7af661d9802a45a53954f1de1ed1d7a1112f9fa64_1 phases=1 bus1=node_414362011.1.4 conn=wye kv=0.1200 pf=1 pmpp=2.59 kva=2.59 irradiance=1 temperature=25 %cutin=20 %cutout=20 effcurve=MyEff P-TCurve=MyPvsT Daily=IRRAD_DIA TDaily=TEMP_DIA
New PVSystem.GD_8a2b8af5565220162a1ae3d7af661d9802a45a53954f1de1ed1d7a1112f9fa64_2 phases=1 bus1=node_414362011.2.4 conn=wye kv=0.1200 pf=1 pmpp=2.59 kva=2.59 irradiance=1 temperature=25 %cutin=20 %cutout=20 effcurve=MyEff P-TCurve=MyPvsT Daily=IRRAD_DIA TDaily=TEMP_DIA
New PVSystem.GD_092cbb596b6996a13b8da75bc1ccc6db1a2be02881e527676065ba7ac869ff95_1 phases=1 bus1=node_414439943.1.4 conn=wye kv=0.1200 pf=1 pmpp=5.00 kva=5.00 irradiance=1 temperature=25 %cutin=20 %cutout=20 effcurve=MyEff P-TCurve=MyPvsT Daily=IRRAD_DIA TDaily=TEMP_DIA
New PVSystem.GD_092cbb596b6996a13b8da75bc1ccc6db1a2be02881e527676065ba7ac869ff95_2 phases=1 bus1=node_414439943.2.4 conn=wye kv=0.1200 pf=1 pmpp=5.00 kva=5.00 irradiance=1 temperature=25 %cutin=20 %cutout=20 effcurve=MyEff P-TCurve=MyPvsT Daily=IRRAD_DIA TDaily=TEMP_DIA
New PVSystem.GD_72d60fd14f3115e4f4a3f1c8f15335ef88d14812b3b9dc0ae41eb1edb4cf051f_1 phases=1 bus1=node_414418032.1.4 conn=wye kv=0.1270 pf=1 pmpp=2.74 kva=2.74 irradiance=1 temperature=25 %cutin=20 %cutout=20 effcurve=MyEff P-TCurve=MyPvsT Daily=IRRAD_DIA TDaily=TEMP_DIA
New PVSystem.GD_72d60fd14f3115e4f4a3f1c8f15335ef88d14812b3b9dc0ae41eb1edb4cf051f_2 phases=1 bus1=node_414418032.2.4 conn=wye kv=0.1270 pf=1 pmpp=2.74 kva=2.74 irradiance=1 temperature=25 %cutin=20 %cutout=20 effcurve=MyEff P-TCurve=MyPvsT Daily=IRRAD_DIA TDaily=TEMP_DIA
New PVSystem.GD_72d60fd14f3115e4f4a3f1c8f15335ef88d14812b3b9dc0ae41eb1edb4cf051f_3 phases=1 bus1=node_414418032.3.4 conn=wye kv=0.1270 pf=1 pmpp=2.74 kva=2.74 irradiance=1 temperature=25 %cutin=20 %cutout=20 effcurve=MyEff P-TCurve=MyPvsT Daily=IRRAD_DIA TDaily=TEMP_DIA
New PVSystem.GD_691ec150b5a8170aadc7386e5a86406b59ca0e217272fbbe568eaa7e473425e0_1 phases=1 bus1=node_414442316.1.4 conn=wye kv=0.1200 pf=1 pmpp=4.06 kva=4.06 irradiance=1 temperature=25 %cutin=20 %cutout=20 effcurve=MyEff P-TCurve=MyPvsT Daily=IRRAD_DIA TDaily=TEMP_DIA
New PVSystem.GD_691ec150b5a8170aadc7386e5a86406b59ca0e217272fbbe568eaa7e473425e0_2 phases=1 bus1=node_414442316.2.4 conn=wye kv=0.1200 pf=1 pmpp=4.06 kva=4.06 irradiance=1 temperature=25 %cutin=20 %cutout=20 effcurve=MyEff P-TCurve=MyPvsT Daily=IRRAD_DIA TDaily=TEMP_DIA
New PVSystem.GD_9a57cdbfd61cf47b667e0446e81f93fd0c649a14c81d942c7b6cf06cde4d7ebd_1 phases=1 bus1=node_414414903.1.4 conn=wye kv=0.1200 pf=1 pmpp=3.75 kva=3.75 irradiance=1 temperature=25 %cutin=20 %cutout=20 effcurve=MyEff P-TCurve=MyPvsT Daily=IRRAD_DIA TDaily=TEMP_DIA
New PVSystem.GD_9a57cdbfd61cf47b667e0446e81f93fd0c649a14c81d942c7b6cf06cde4d7ebd_2 phases=1 bus1=node_414414903.2.4 conn=wye kv=0.1200 pf=1 pmpp=3.75 kva=3.75 irradiance=1 temperature=25 %cutin=20 %cutout=20 effcurve=MyEff P-TCurve=MyPvsT Daily=IRRAD_DIA TDaily=TEMP_DIA
New PVSystem.GD_fc9f2b03bdfde49173eb2135b26e1b4e6846414cc1ffd32e5bab178b510dd481_1 phases=1 bus1=node_422849416.1.4 conn=wye kv=0.1270 pf=1 pmpp=0.78 kva=0.78 irradiance=1 temperature=25 %cutin=20 %cutout=20 effcurve=MyEff P-TCurve=MyPvsT Daily=IRRAD_DIA TDaily=TEMP_DIA
New PVSystem.GD_fc9f2b03bdfde49173eb2135b26e1b4e6846414cc1ffd32e5bab178b510dd481_2 phases=1 bus1=node_422849416.2.4 conn=wye kv=0.1270 pf=1 pmpp=0.78 kva=0.78 irradiance=1 temperature=25 %cutin=20 %cutout=20 effcurve=MyEff P-TCurve=MyPvsT Daily=IRRAD_DIA TDaily=TEMP_DIA
New PVSystem.GD_fc9f2b03bdfde49173eb2135b26e1b4e6846414cc1ffd32e5bab178b510dd481_3 phases=1 bus1=node_422849416.3.4 conn=wye kv=0.1270 pf=1 pmpp=0.78 kva=0.78 irradiance=1 temperature=25 %cutin=20 %cutout=20 effcurve=MyEff P-TCurve=MyPvsT Daily=IRRAD_DIA TDaily=TEMP_DIA
New PVSystem.GD_7f984e098bb396dcaf4f7c1a94461049536bbb75f202562bf4c24aff592a664e_1 phases=1 bus1=node_422849416.1.4 conn=wye kv=0.1270 pf=1 pmpp=0.44 kva=0.44 irradiance=1 temperature=25 %cutin=20 %cutout=20 effcurve=MyEff P-TCurve=MyPvsT Daily=IRRAD_DIA TDaily=TEMP_DIA
New PVSystem.GD_7f984e098bb396dcaf4f7c1a94461049536bbb75f202562bf4c24aff592a664e_2 phases=1 bus1=node_422849416.2.4 conn=wye kv=0.1270 pf=1 pmpp=0.44 kva=0.44 irradiance=1 temperature=25 %cutin=20 %cutout=20 effcurve=MyEff P-TCurve=MyPvsT Daily=IRRAD_DIA TDaily=TEMP_DIA
New PVSystem.GD_7f984e098bb396dcaf4f7c1a94461049536bbb75f202562bf4c24aff592a664e_3 phases=1 bus1=node_422849416.3.4 conn=wye kv=0.1270 pf=1 pmpp=0.44 kva=0.44 irradiance=1 temperature=25 %cutin=20 %cutout=20 effcurve=MyEff P-TCurve=MyPvsT Daily=IRRAD_DIA TDaily=TEMP_DIA
New PVSystem.GD_ce55e08dd257908283564fe18c6770639d5ba7dababb209b8d6ca9f6ca0bd599_1 phases=1 bus1=node_422781685.1.4 conn=wye kv=0.1270 pf=1 pmpp=0.69 kva=0.69 irradiance=1 temperature=25 %cutin=20 %cutout=20 effcurve=MyEff P-TCurve=MyPvsT Daily=IRRAD_DIA TDaily=TEMP_DIA
New PVSystem.GD_ce55e08dd257908283564fe18c6770639d5ba7dababb209b8d6ca9f6ca0bd599_2 phases=1 bus1=node_422781685.2.4 conn=wye kv=0.1270 pf=1 pmpp=0.69 kva=0.69 irradiance=1 temperature=25 %cutin=20 %cutout=20 effcurve=MyEff P-TCurve=MyPvsT Daily=IRRAD_DIA TDaily=TEMP_DIA
New PVSystem.GD_ce55e08dd257908283564fe18c6770639d5ba7dababb209b8d6ca9f6ca0bd599_3 phases=1 bus1=node_422781685.3.4 conn=wye kv=0.1270 pf=1 pmpp=0.69 kva=0.69 irradiance=1 temperature=25 %cutin=20 %cutout=20 effcurve=MyEff P-TCurve=MyPvsT Daily=IRRAD_DIA TDaily=TEMP_DIA
New PVSystem.GD_ec771b596296b1185cd6f83c62c28f10467b54c380e8b620415dd1f1748ce012_1 phases=1 bus1=node_423029415.1.4 conn=wye kv=0.1200 pf=1 pmpp=1.10 kva=1.10 irradiance=1 temperature=25 %cutin=20 %cutout=20 effcurve=MyEff P-TCurve=MyPvsT Daily=IRRAD_DIA TDaily=TEMP_DIA
New PVSystem.GD_ec771b596296b1185cd6f83c62c28f10467b54c380e8b620415dd1f1748ce012_2 phases=1 bus1=node_423029415.2.4 conn=wye kv=0.1200 pf=1 pmpp=1.10 kva=1.10 irradiance=1 temperature=25 %cutin=20 %cutout=20 effcurve=MyEff P-TCurve=MyPvsT Daily=IRRAD_DIA TDaily=TEMP_DIA
New PVSystem.GD_fdfd0ed628fd96bc5783e3ba409d1e16add48d591b51275eb3fbe7ebefa9daeb_1 phases=1 bus1=node_422999684.1.4 conn=wye kv=0.1270 pf=1 pmpp=0.33 kva=0.33 irradiance=1 temperature=25 %cutin=20 %cutout=20 effcurve=MyEff P-TCurve=MyPvsT Daily=IRRAD_DIA TDaily=TEMP_DIA
New PVSystem.GD_fdfd0ed628fd96bc5783e3ba409d1e16add48d591b51275eb3fbe7ebefa9daeb_2 phases=1 bus1=node_422999684.2.4 conn=wye kv=0.1270 pf=1 pmpp=0.33 kva=0.33 irradiance=1 temperature=25 %cutin=20 %cutout=20 effcurve=MyEff P-TCurve=MyPvsT Daily=IRRAD_DIA TDaily=TEMP_DIA
New PVSystem.GD_fdfd0ed628fd96bc5783e3ba409d1e16add48d591b51275eb3fbe7ebefa9daeb_3 phases=1 bus1=node_422999684.3.4 conn=wye kv=0.1270 pf=1 pmpp=0.33 kva=0.33 irradiance=1 temperature=25 %cutin=20 %cutout=20 effcurve=MyEff P-TCurve=MyPvsT Daily=IRRAD_DIA TDaily=TEMP_DIA
New PVSystem.GD_f14432bd22902226251d8e2cfbfcbe7228708fd0609e1355b0fc58bee420e6e4_1 phases=1 bus1=node_422786434.1.4 conn=wye kv=0.1270 pf=1 pmpp=1.34 kva=1.34 irradiance=1 temperature=25 %cutin=20 %cutout=20 effcurve=MyEff P-TCurve=MyPvsT Daily=IRRAD_DIA TDaily=TEMP_DIA
New PVSystem.GD_f14432bd22902226251d8e2cfbfcbe7228708fd0609e1355b0fc58bee420e6e4_2 phases=1 bus1=node_422786434.2.4 conn=wye kv=0.1270 pf=1 pmpp=1.34 kva=1.34 irradiance=1 temperature=25 %cutin=20 %cutout=20 effcurve=MyEff P-TCurve=MyPvsT Daily=IRRAD_DIA TDaily=TEMP_DIA
New PVSystem.GD_f14432bd22902226251d8e2cfbfcbe7228708fd0609e1355b0fc58bee420e6e4_3 phases=1 bus1=node_422786434.3.4 conn=wye kv=0.1270 pf=1 pmpp=1.34 kva=1.34 irradiance=1 temperature=25 %cutin=20 %cutout=20 effcurve=MyEff P-TCurve=MyPvsT Daily=IRRAD_DIA TDaily=TEMP_DIA
New PVSystem.GD_99be18ddbb027538a7a127d4ccffe17db426661e82e766250cd862a04de054fd_1 phases=1 bus1=node_422786434.1.4 conn=wye kv=0.1270 pf=1 pmpp=1.07 kva=1.07 irradiance=1 temperature=25 %cutin=20 %cutout=20 effcurve=MyEff P-TCurve=MyPvsT Daily=IRRAD_DIA TDaily=TEMP_DIA
New PVSystem.GD_99be18ddbb027538a7a127d4ccffe17db426661e82e766250cd862a04de054fd_2 phases=1 bus1=node_422786434.2.4 conn=wye kv=0.1270 pf=1 pmpp=1.07 kva=1.07 irradiance=1 temperature=25 %cutin=20 %cutout=20 effcurve=MyEff P-TCurve=MyPvsT Daily=IRRAD_DIA TDaily=TEMP_DIA
New PVSystem.GD_99be18ddbb027538a7a127d4ccffe17db426661e82e766250cd862a04de054fd_3 phases=1 bus1=node_422786434.3.4 conn=wye kv=0.1270 pf=1 pmpp=1.07 kva=1.07 irradiance=1 temperature=25 %cutin=20 %cutout=20 effcurve=MyEff P-TCurve=MyPvsT Daily=IRRAD_DIA TDaily=TEMP_DIA
New PVSystem.GD_2f9dc33284a013676402fc7fcd27a1d14931dfe2e20ae4ce078303742cffcc69_1 phases=1 bus1=node_422786434.1.4 conn=wye kv=0.1270 pf=1 pmpp=0.65 kva=0.65 irradiance=1 temperature=25 %cutin=20 %cutout=20 effcurve=MyEff P-TCurve=MyPvsT Daily=IRRAD_DIA TDaily=TEMP_DIA
New PVSystem.GD_2f9dc33284a013676402fc7fcd27a1d14931dfe2e20ae4ce078303742cffcc69_2 phases=1 bus1=node_422786434.2.4 conn=wye kv=0.1270 pf=1 pmpp=0.65 kva=0.65 irradiance=1 temperature=25 %cutin=20 %cutout=20 effcurve=MyEff P-TCurve=MyPvsT Daily=IRRAD_DIA TDaily=TEMP_DIA
New PVSystem.GD_2f9dc33284a013676402fc7fcd27a1d14931dfe2e20ae4ce078303742cffcc69_3 phases=1 bus1=node_422786434.3.4 conn=wye kv=0.1270 pf=1 pmpp=0.65 kva=0.65 irradiance=1 temperature=25 %cutin=20 %cutout=20 effcurve=MyEff P-TCurve=MyPvsT Daily=IRRAD_DIA TDaily=TEMP_DIA
New PVSystem.GD_641cb9500182b9d1c9a9ad53214dbd0b927e1b561cda81635539fcf673db9b7d_1 phases=1 bus1=node_422786434.1.4 conn=wye kv=0.1270 pf=1 pmpp=1.51 kva=1.51 irradiance=1 temperature=25 %cutin=20 %cutout=20 effcurve=MyEff P-TCurve=MyPvsT Daily=IRRAD_DIA TDaily=TEMP_DIA
New PVSystem.GD_641cb9500182b9d1c9a9ad53214dbd0b927e1b561cda81635539fcf673db9b7d_2 phases=1 bus1=node_422786434.2.4 conn=wye kv=0.1270 pf=1 pmpp=1.51 kva=1.51 irradiance=1 temperature=25 %cutin=20 %cutout=20 effcurve=MyEff P-TCurve=MyPvsT Daily=IRRAD_DIA TDaily=TEMP_DIA
New PVSystem.GD_641cb9500182b9d1c9a9ad53214dbd0b927e1b561cda81635539fcf673db9b7d_3 phases=1 bus1=node_422786434.3.4 conn=wye kv=0.1270 pf=1 pmpp=1.51 kva=1.51 irradiance=1 temperature=25 %cutin=20 %cutout=20 effcurve=MyEff P-TCurve=MyPvsT Daily=IRRAD_DIA TDaily=TEMP_DIA
New PVSystem.GD_d1cec3527c06773b0b8d2788d9e1ed842019b7e277357b9c87d8ac7271948192_1 phases=1 bus1=node_422786434.1.4 conn=wye kv=0.1270 pf=1 pmpp=1.56 kva=1.56 irradiance=1 temperature=25 %cutin=20 %cutout=20 effcurve=MyEff P-TCurve=MyPvsT Daily=IRRAD_DIA TDaily=TEMP_DIA
New PVSystem.GD_d1cec3527c06773b0b8d2788d9e1ed842019b7e277357b9c87d8ac7271948192_2 phases=1 bus1=node_422786434.2.4 conn=wye kv=0.1270 pf=1 pmpp=1.56 kva=1.56 irradiance=1 temperature=25 %cutin=20 %cutout=20 effcurve=MyEff P-TCurve=MyPvsT Daily=IRRAD_DIA TDaily=TEMP_DIA
New PVSystem.GD_d1cec3527c06773b0b8d2788d9e1ed842019b7e277357b9c87d8ac7271948192_3 phases=1 bus1=node_422786434.3.4 conn=wye kv=0.1270 pf=1 pmpp=1.56 kva=1.56 irradiance=1 temperature=25 %cutin=20 %cutout=20 effcurve=MyEff P-TCurve=MyPvsT Daily=IRRAD_DIA TDaily=TEMP_DIA
New PVSystem.GD_4b67724d9c8cbde481a5742dff41617124580cdb730712e63c470dceb10b3a8c_1 phases=1 bus1=node_422786434.1.4 conn=wye kv=0.1270 pf=1 pmpp=1.42 kva=1.42 irradiance=1 temperature=25 %cutin=20 %cutout=20 effcurve=MyEff P-TCurve=MyPvsT Daily=IRRAD_DIA TDaily=TEMP_DIA
New PVSystem.GD_4b67724d9c8cbde481a5742dff41617124580cdb730712e63c470dceb10b3a8c_2 phases=1 bus1=node_422786434.2.4 conn=wye kv=0.1270 pf=1 pmpp=1.42 kva=1.42 irradiance=1 temperature=25 %cutin=20 %cutout=20 effcurve=MyEff P-TCurve=MyPvsT Daily=IRRAD_DIA TDaily=TEMP_DIA
New PVSystem.GD_4b67724d9c8cbde481a5742dff41617124580cdb730712e63c470dceb10b3a8c_3 phases=1 bus1=node_422786434.3.4 conn=wye kv=0.1270 pf=1 pmpp=1.42 kva=1.42 irradiance=1 temperature=25 %cutin=20 %cutout=20 effcurve=MyEff P-TCurve=MyPvsT Daily=IRRAD_DIA TDaily=TEMP_DIA
New PVSystem.GD_29362c9b0ba7c9149acb5d60d6a8872d9ffd5905566c978a007e9c3ec4c90128_1 phases=1 bus1=node_422786434.1.4 conn=wye kv=0.1270 pf=1 pmpp=1.99 kva=1.99 irradiance=1 temperature=25 %cutin=20 %cutout=20 effcurve=MyEff P-TCurve=MyPvsT Daily=IRRAD_DIA TDaily=TEMP_DIA
New PVSystem.GD_29362c9b0ba7c9149acb5d60d6a8872d9ffd5905566c978a007e9c3ec4c90128_2 phases=1 bus1=node_422786434.2.4 conn=wye kv=0.1270 pf=1 pmpp=1.99 kva=1.99 irradiance=1 temperature=25 %cutin=20 %cutout=20 effcurve=MyEff P-TCurve=MyPvsT Daily=IRRAD_DIA TDaily=TEMP_DIA
New PVSystem.GD_29362c9b0ba7c9149acb5d60d6a8872d9ffd5905566c978a007e9c3ec4c90128_3 phases=1 bus1=node_422786434.3.4 conn=wye kv=0.1270 pf=1 pmpp=1.99 kva=1.99 irradiance=1 temperature=25 %cutin=20 %cutout=20 effcurve=MyEff P-TCurve=MyPvsT Daily=IRRAD_DIA TDaily=TEMP_DIA
New PVSystem.GD_43ea432d3bc20eb5f5f2459a7ef30de62136aa2366ee95955d3b646e573af7ee_1 phases=1 bus1=node_422787724.1.4 conn=wye kv=0.1270 pf=1 pmpp=2.13 kva=2.13 irradiance=1 temperature=25 %cutin=20 %cutout=20 effcurve=MyEff P-TCurve=MyPvsT Daily=IRRAD_DIA TDaily=TEMP_DIA
New PVSystem.GD_43ea432d3bc20eb5f5f2459a7ef30de62136aa2366ee95955d3b646e573af7ee_2 phases=1 bus1=node_422787724.2.4 conn=wye kv=0.1270 pf=1 pmpp=2.13 kva=2.13 irradiance=1 temperature=25 %cutin=20 %cutout=20 effcurve=MyEff P-TCurve=MyPvsT Daily=IRRAD_DIA TDaily=TEMP_DIA
New PVSystem.GD_43ea432d3bc20eb5f5f2459a7ef30de62136aa2366ee95955d3b646e573af7ee_3 phases=1 bus1=node_422787724.3.4 conn=wye kv=0.1270 pf=1 pmpp=2.13 kva=2.13 irradiance=1 temperature=25 %cutin=20 %cutout=20 effcurve=MyEff P-TCurve=MyPvsT Daily=IRRAD_DIA TDaily=TEMP_DIA
New PVSystem.GD_fd398d24a9cc72668b3156e206764954282363c1e98821918679dab6aa08bc0a_1 phases=1 bus1=node_422787724.1.4 conn=wye kv=0.1270 pf=1 pmpp=0.92 kva=0.92 irradiance=1 temperature=25 %cutin=20 %cutout=20 effcurve=MyEff P-TCurve=MyPvsT Daily=IRRAD_DIA TDaily=TEMP_DIA
New PVSystem.GD_fd398d24a9cc72668b3156e206764954282363c1e98821918679dab6aa08bc0a_2 phases=1 bus1=node_422787724.2.4 conn=wye kv=0.1270 pf=1 pmpp=0.92 kva=0.92 irradiance=1 temperature=25 %cutin=20 %cutout=20 effcurve=MyEff P-TCurve=MyPvsT Daily=IRRAD_DIA TDaily=TEMP_DIA
New PVSystem.GD_fd398d24a9cc72668b3156e206764954282363c1e98821918679dab6aa08bc0a_3 phases=1 bus1=node_422787724.3.4 conn=wye kv=0.1270 pf=1 pmpp=0.92 kva=0.92 irradiance=1 temperature=25 %cutin=20 %cutout=20 effcurve=MyEff P-TCurve=MyPvsT Daily=IRRAD_DIA TDaily=TEMP_DIA
New PVSystem.GD_8d412527686c8b06230161e24481e818c8380bd7ff31f8b02154012eb547dda5_1 phases=1 bus1=node_422787724.1.4 conn=wye kv=0.1270 pf=1 pmpp=0.75 kva=0.75 irradiance=1 temperature=25 %cutin=20 %cutout=20 effcurve=MyEff P-TCurve=MyPvsT Daily=IRRAD_DIA TDaily=TEMP_DIA
New PVSystem.GD_8d412527686c8b06230161e24481e818c8380bd7ff31f8b02154012eb547dda5_2 phases=1 bus1=node_422787724.2.4 conn=wye kv=0.1270 pf=1 pmpp=0.75 kva=0.75 irradiance=1 temperature=25 %cutin=20 %cutout=20 effcurve=MyEff P-TCurve=MyPvsT Daily=IRRAD_DIA TDaily=TEMP_DIA
New PVSystem.GD_8d412527686c8b06230161e24481e818c8380bd7ff31f8b02154012eb547dda5_3 phases=1 bus1=node_422787724.3.4 conn=wye kv=0.1270 pf=1 pmpp=0.75 kva=0.75 irradiance=1 temperature=25 %cutin=20 %cutout=20 effcurve=MyEff P-TCurve=MyPvsT Daily=IRRAD_DIA TDaily=TEMP_DIA
New PVSystem.GD_2f11aa5d0f478376b73efbf89c3ad9381c76311bc5820a7a02bbac1fb332d9ed_1 phases=1 bus1=node_2546926256.1.4 conn=wye kv=0.1200 pf=1 pmpp=0.80 kva=0.80 irradiance=1 temperature=25 %cutin=20 %cutout=20 effcurve=MyEff P-TCurve=MyPvsT Daily=IRRAD_DIA TDaily=TEMP_DIA
New PVSystem.GD_2f11aa5d0f478376b73efbf89c3ad9381c76311bc5820a7a02bbac1fb332d9ed_2 phases=1 bus1=node_2546926256.2.4 conn=wye kv=0.1200 pf=1 pmpp=0.80 kva=0.80 irradiance=1 temperature=25 %cutin=20 %cutout=20 effcurve=MyEff P-TCurve=MyPvsT Daily=IRRAD_DIA TDaily=TEMP_DIA
New PVSystem.GD_62d5b7aae8fdc2de95c4be4ad92f1742abba9bdc40bb817bda6858526a0808b0_1 phases=1 bus1=node_422787448.1.4 conn=wye kv=0.1200 pf=1 pmpp=1.52 kva=1.52 irradiance=1 temperature=25 %cutin=20 %cutout=20 effcurve=MyEff P-TCurve=MyPvsT Daily=IRRAD_DIA TDaily=TEMP_DIA
New PVSystem.GD_62d5b7aae8fdc2de95c4be4ad92f1742abba9bdc40bb817bda6858526a0808b0_2 phases=1 bus1=node_422787448.2.4 conn=wye kv=0.1200 pf=1 pmpp=1.52 kva=1.52 irradiance=1 temperature=25 %cutin=20 %cutout=20 effcurve=MyEff P-TCurve=MyPvsT Daily=IRRAD_DIA TDaily=TEMP_DIA
New PVSystem.GD_d340005d6e655e8d17e3d4b6d43eae8fedfc0e9ce70815120d626363521f0eff_1 phases=1 bus1=node_422787694.1.4 conn=wye kv=0.1200 pf=1 pmpp=1.38 kva=1.38 irradiance=1 temperature=25 %cutin=20 %cutout=20 effcurve=MyEff P-TCurve=MyPvsT Daily=IRRAD_DIA TDaily=TEMP_DIA
New PVSystem.GD_d340005d6e655e8d17e3d4b6d43eae8fedfc0e9ce70815120d626363521f0eff_2 phases=1 bus1=node_422787694.2.4 conn=wye kv=0.1200 pf=1 pmpp=1.38 kva=1.38 irradiance=1 temperature=25 %cutin=20 %cutout=20 effcurve=MyEff P-TCurve=MyPvsT Daily=IRRAD_DIA TDaily=TEMP_DIA
New PVSystem.GD_9d496bb878d8e7c9ed39ff2eca1f18a201bdeb6cb27006c75d1aef7eceb7a1d4_1 phases=1 bus1=node_422787697.1.4 conn=wye kv=0.1200 pf=1 pmpp=0.59 kva=0.59 irradiance=1 temperature=25 %cutin=20 %cutout=20 effcurve=MyEff P-TCurve=MyPvsT Daily=IRRAD_DIA TDaily=TEMP_DIA
New PVSystem.GD_9d496bb878d8e7c9ed39ff2eca1f18a201bdeb6cb27006c75d1aef7eceb7a1d4_2 phases=1 bus1=node_422787697.2.4 conn=wye kv=0.1200 pf=1 pmpp=0.59 kva=0.59 irradiance=1 temperature=25 %cutin=20 %cutout=20 effcurve=MyEff P-TCurve=MyPvsT Daily=IRRAD_DIA TDaily=TEMP_DIA
New PVSystem.GD_d69fbfa48c9f65e2d58b81d9c6f178cee4ea02e6fc6954e92b560c364469d701_1 phases=1 bus1=node_422789671.1.4 conn=wye kv=0.1200 pf=1 pmpp=3.52 kva=3.52 irradiance=1 temperature=25 %cutin=20 %cutout=20 effcurve=MyEff P-TCurve=MyPvsT Daily=IRRAD_DIA TDaily=TEMP_DIA
New PVSystem.GD_d69fbfa48c9f65e2d58b81d9c6f178cee4ea02e6fc6954e92b560c364469d701_2 phases=1 bus1=node_422789671.2.4 conn=wye kv=0.1200 pf=1 pmpp=3.52 kva=3.52 irradiance=1 temperature=25 %cutin=20 %cutout=20 effcurve=MyEff P-TCurve=MyPvsT Daily=IRRAD_DIA TDaily=TEMP_DIA
New PVSystem.GD_305fb7c254a6d7181584d8d01519db30be71e6a333cd0a4b9efd8fddbf4a3f20_1 phases=1 bus1=node_1909275636.1.4 conn=wye kv=0.1200 pf=1 pmpp=0.64 kva=0.64 irradiance=1 temperature=25 %cutin=20 %cutout=20 effcurve=MyEff P-TCurve=MyPvsT Daily=IRRAD_DIA TDaily=TEMP_DIA
New PVSystem.GD_305fb7c254a6d7181584d8d01519db30be71e6a333cd0a4b9efd8fddbf4a3f20_2 phases=1 bus1=node_1909275636.2.4 conn=wye kv=0.1200 pf=1 pmpp=0.64 kva=0.64 irradiance=1 temperature=25 %cutin=20 %cutout=20 effcurve=MyEff P-TCurve=MyPvsT Daily=IRRAD_DIA TDaily=TEMP_DIA
New PVSystem.GD_6b1f4aae546e6c5378f1c211918273fe0edfcd544020ff24bf61a1655520eb8d_1 phases=1 bus1=node_408536125.1.4 conn=wye kv=0.1200 pf=1 pmpp=0.89 kva=0.89 irradiance=1 temperature=25 %cutin=20 %cutout=20 effcurve=MyEff P-TCurve=MyPvsT Daily=IRRAD_DIA TDaily=TEMP_DIA
New PVSystem.GD_6b1f4aae546e6c5378f1c211918273fe0edfcd544020ff24bf61a1655520eb8d_2 phases=1 bus1=node_408536125.2.4 conn=wye kv=0.1200 pf=1 pmpp=0.89 kva=0.89 irradiance=1 temperature=25 %cutin=20 %cutout=20 effcurve=MyEff P-TCurve=MyPvsT Daily=IRRAD_DIA TDaily=TEMP_DIA
New PVSystem.GD_936e1ce5350ab66b29de7b032d3291fa9cfb6eb5b1431c72e23d2049a481b3ec_1 phases=1 bus1=node_422844427.1.4 conn=wye kv=0.1200 pf=1 pmpp=1.10 kva=1.10 irradiance=1 temperature=25 %cutin=20 %cutout=20 effcurve=MyEff P-TCurve=MyPvsT Daily=IRRAD_DIA TDaily=TEMP_DIA
New PVSystem.GD_936e1ce5350ab66b29de7b032d3291fa9cfb6eb5b1431c72e23d2049a481b3ec_2 phases=1 bus1=node_422844427.2.4 conn=wye kv=0.1200 pf=1 pmpp=1.10 kva=1.10 irradiance=1 temperature=25 %cutin=20 %cutout=20 effcurve=MyEff P-TCurve=MyPvsT Daily=IRRAD_DIA TDaily=TEMP_DIA
New PVSystem.GD_d339dbd24bfecd6435317125105fd8e660fe662542b4acc20426617ae48f6a1d_1 phases=1 bus1=node_411468871.1.4 conn=wye kv=0.1270 pf=1 pmpp=2.25 kva=2.25 irradiance=1 temperature=25 %cutin=20 %cutout=20 effcurve=MyEff P-TCurve=MyPvsT Daily=IRRAD_DIA TDaily=TEMP_DIA
New PVSystem.GD_d339dbd24bfecd6435317125105fd8e660fe662542b4acc20426617ae48f6a1d_2 phases=1 bus1=node_411468871.2.4 conn=wye kv=0.1270 pf=1 pmpp=2.25 kva=2.25 irradiance=1 temperature=25 %cutin=20 %cutout=20 effcurve=MyEff P-TCurve=MyPvsT Daily=IRRAD_DIA TDaily=TEMP_DIA
New PVSystem.GD_d339dbd24bfecd6435317125105fd8e660fe662542b4acc20426617ae48f6a1d_3 phases=1 bus1=node_411468871.3.4 conn=wye kv=0.1270 pf=1 pmpp=2.25 kva=2.25 irradiance=1 temperature=25 %cutin=20 %cutout=20 effcurve=MyEff P-TCurve=MyPvsT Daily=IRRAD_DIA TDaily=TEMP_DIA
New PVSystem.GD_78dc6e06db01607371e3b2ae2092aab31ee876730046d5330e787f5b5e32241e_1 phases=1 bus1=node_415583413.1.4 conn=wye kv=0.1200 pf=1 pmpp=0.98 kva=0.98 irradiance=1 temperature=25 %cutin=20 %cutout=20 effcurve=MyEff P-TCurve=MyPvsT Daily=IRRAD_DIA TDaily=TEMP_DIA
New PVSystem.GD_78dc6e06db01607371e3b2ae2092aab31ee876730046d5330e787f5b5e32241e_2 phases=1 bus1=node_415583413.2.4 conn=wye kv=0.1200 pf=1 pmpp=0.98 kva=0.98 irradiance=1 temperature=25 %cutin=20 %cutout=20 effcurve=MyEff P-TCurve=MyPvsT Daily=IRRAD_DIA TDaily=TEMP_DIA
New PVSystem.GD_869861003d39540959e2618a30c55ad9a0bdc79b9c6b9c5b83556447fa3adae8_1 phases=1 bus1=node_411468961.1.4 conn=wye kv=0.1270 pf=1 pmpp=1.02 kva=1.02 irradiance=1 temperature=25 %cutin=20 %cutout=20 effcurve=MyEff P-TCurve=MyPvsT Daily=IRRAD_DIA TDaily=TEMP_DIA
New PVSystem.GD_869861003d39540959e2618a30c55ad9a0bdc79b9c6b9c5b83556447fa3adae8_2 phases=1 bus1=node_411468961.2.4 conn=wye kv=0.1270 pf=1 pmpp=1.02 kva=1.02 irradiance=1 temperature=25 %cutin=20 %cutout=20 effcurve=MyEff P-TCurve=MyPvsT Daily=IRRAD_DIA TDaily=TEMP_DIA
New PVSystem.GD_869861003d39540959e2618a30c55ad9a0bdc79b9c6b9c5b83556447fa3adae8_3 phases=1 bus1=node_411468961.3.4 conn=wye kv=0.1270 pf=1 pmpp=1.02 kva=1.02 irradiance=1 temperature=25 %cutin=20 %cutout=20 effcurve=MyEff P-TCurve=MyPvsT Daily=IRRAD_DIA TDaily=TEMP_DIA
New PVSystem.GD_fc68ee02a4eb8664bf1f41fbf28a254b26a7a3c1b3de2540db653b07614d61f4_1 phases=1 bus1=node_411468961.1.4 conn=wye kv=0.1270 pf=1 pmpp=1.61 kva=1.61 irradiance=1 temperature=25 %cutin=20 %cutout=20 effcurve=MyEff P-TCurve=MyPvsT Daily=IRRAD_DIA TDaily=TEMP_DIA
New PVSystem.GD_fc68ee02a4eb8664bf1f41fbf28a254b26a7a3c1b3de2540db653b07614d61f4_2 phases=1 bus1=node_411468961.2.4 conn=wye kv=0.1270 pf=1 pmpp=1.61 kva=1.61 irradiance=1 temperature=25 %cutin=20 %cutout=20 effcurve=MyEff P-TCurve=MyPvsT Daily=IRRAD_DIA TDaily=TEMP_DIA
New PVSystem.GD_fc68ee02a4eb8664bf1f41fbf28a254b26a7a3c1b3de2540db653b07614d61f4_3 phases=1 bus1=node_411468961.3.4 conn=wye kv=0.1270 pf=1 pmpp=1.61 kva=1.61 irradiance=1 temperature=25 %cutin=20 %cutout=20 effcurve=MyEff P-TCurve=MyPvsT Daily=IRRAD_DIA TDaily=TEMP_DIA
New PVSystem.GD_f6c541ebfc97d085f441b5651bed25e32ab13484d7afc70f86584ef7e7333605_1 phases=1 bus1=node_411468961.1.4 conn=wye kv=0.1270 pf=1 pmpp=0.89 kva=0.89 irradiance=1 temperature=25 %cutin=20 %cutout=20 effcurve=MyEff P-TCurve=MyPvsT Daily=IRRAD_DIA TDaily=TEMP_DIA
New PVSystem.GD_f6c541ebfc97d085f441b5651bed25e32ab13484d7afc70f86584ef7e7333605_2 phases=1 bus1=node_411468961.2.4 conn=wye kv=0.1270 pf=1 pmpp=0.89 kva=0.89 irradiance=1 temperature=25 %cutin=20 %cutout=20 effcurve=MyEff P-TCurve=MyPvsT Daily=IRRAD_DIA TDaily=TEMP_DIA
New PVSystem.GD_f6c541ebfc97d085f441b5651bed25e32ab13484d7afc70f86584ef7e7333605_3 phases=1 bus1=node_411468961.3.4 conn=wye kv=0.1270 pf=1 pmpp=0.89 kva=0.89 irradiance=1 temperature=25 %cutin=20 %cutout=20 effcurve=MyEff P-TCurve=MyPvsT Daily=IRRAD_DIA TDaily=TEMP_DIA
New PVSystem.GD_560c788615cce1ddf23984dd236f7a9570655d34a0fb7d3d8d2cdc1f34c250f6_1 phases=1 bus1=node_411470959.1.4 conn=wye kv=0.1270 pf=1 pmpp=1.66 kva=1.66 irradiance=1 temperature=25 %cutin=20 %cutout=20 effcurve=MyEff P-TCurve=MyPvsT Daily=IRRAD_DIA TDaily=TEMP_DIA
New PVSystem.GD_560c788615cce1ddf23984dd236f7a9570655d34a0fb7d3d8d2cdc1f34c250f6_2 phases=1 bus1=node_411470959.2.4 conn=wye kv=0.1270 pf=1 pmpp=1.66 kva=1.66 irradiance=1 temperature=25 %cutin=20 %cutout=20 effcurve=MyEff P-TCurve=MyPvsT Daily=IRRAD_DIA TDaily=TEMP_DIA
New PVSystem.GD_560c788615cce1ddf23984dd236f7a9570655d34a0fb7d3d8d2cdc1f34c250f6_3 phases=1 bus1=node_411470959.3.4 conn=wye kv=0.1270 pf=1 pmpp=1.66 kva=1.66 irradiance=1 temperature=25 %cutin=20 %cutout=20 effcurve=MyEff P-TCurve=MyPvsT Daily=IRRAD_DIA TDaily=TEMP_DIA
New PVSystem.GD_d8f41c4e8ae59bcb0d8ad36569bddddce980d6777b0f63364307cdde80ea2822_1 phases=1 bus1=node_414365944.1.4 conn=wye kv=0.1270 pf=1 pmpp=1.34 kva=1.34 irradiance=1 temperature=25 %cutin=20 %cutout=20 effcurve=MyEff P-TCurve=MyPvsT Daily=IRRAD_DIA TDaily=TEMP_DIA
New PVSystem.GD_d8f41c4e8ae59bcb0d8ad36569bddddce980d6777b0f63364307cdde80ea2822_2 phases=1 bus1=node_414365944.2.4 conn=wye kv=0.1270 pf=1 pmpp=1.34 kva=1.34 irradiance=1 temperature=25 %cutin=20 %cutout=20 effcurve=MyEff P-TCurve=MyPvsT Daily=IRRAD_DIA TDaily=TEMP_DIA
New PVSystem.GD_d8f41c4e8ae59bcb0d8ad36569bddddce980d6777b0f63364307cdde80ea2822_3 phases=1 bus1=node_414365944.3.4 conn=wye kv=0.1270 pf=1 pmpp=1.34 kva=1.34 irradiance=1 temperature=25 %cutin=20 %cutout=20 effcurve=MyEff P-TCurve=MyPvsT Daily=IRRAD_DIA TDaily=TEMP_DIA
New PVSystem.GD_5027c629337bbe67b4ecfd9b16ebef12eacfc3753346925765acc05140f712b6_1 phases=1 bus1=node_414365944.1.4 conn=wye kv=0.1270 pf=1 pmpp=1.79 kva=1.79 irradiance=1 temperature=25 %cutin=20 %cutout=20 effcurve=MyEff P-TCurve=MyPvsT Daily=IRRAD_DIA TDaily=TEMP_DIA
New PVSystem.GD_5027c629337bbe67b4ecfd9b16ebef12eacfc3753346925765acc05140f712b6_2 phases=1 bus1=node_414365944.2.4 conn=wye kv=0.1270 pf=1 pmpp=1.79 kva=1.79 irradiance=1 temperature=25 %cutin=20 %cutout=20 effcurve=MyEff P-TCurve=MyPvsT Daily=IRRAD_DIA TDaily=TEMP_DIA
New PVSystem.GD_5027c629337bbe67b4ecfd9b16ebef12eacfc3753346925765acc05140f712b6_3 phases=1 bus1=node_414365944.3.4 conn=wye kv=0.1270 pf=1 pmpp=1.79 kva=1.79 irradiance=1 temperature=25 %cutin=20 %cutout=20 effcurve=MyEff P-TCurve=MyPvsT Daily=IRRAD_DIA TDaily=TEMP_DIA
New PVSystem.GD_42f1575af73935f5d24e6125415414b63053fdf6d30a7d1a8619c9066af96e28_1 phases=1 bus1=node_408536692.1.4 conn=wye kv=0.1200 pf=1 pmpp=0.64 kva=0.64 irradiance=1 temperature=25 %cutin=20 %cutout=20 effcurve=MyEff P-TCurve=MyPvsT Daily=IRRAD_DIA TDaily=TEMP_DIA
New PVSystem.GD_42f1575af73935f5d24e6125415414b63053fdf6d30a7d1a8619c9066af96e28_2 phases=1 bus1=node_408536692.2.4 conn=wye kv=0.1200 pf=1 pmpp=0.64 kva=0.64 irradiance=1 temperature=25 %cutin=20 %cutout=20 effcurve=MyEff P-TCurve=MyPvsT Daily=IRRAD_DIA TDaily=TEMP_DIA
New PVSystem.GD_bfcfcdaef4469c5dc944dace5b536918f057a46d5aaa0560387533261e07ee9d_1 phases=1 bus1=node_408912070.1.4 conn=wye kv=0.1200 pf=1 pmpp=3.33 kva=3.33 irradiance=1 temperature=25 %cutin=20 %cutout=20 effcurve=MyEff P-TCurve=MyPvsT Daily=IRRAD_DIA TDaily=TEMP_DIA
New PVSystem.GD_bfcfcdaef4469c5dc944dace5b536918f057a46d5aaa0560387533261e07ee9d_2 phases=1 bus1=node_408912070.2.4 conn=wye kv=0.1200 pf=1 pmpp=3.33 kva=3.33 irradiance=1 temperature=25 %cutin=20 %cutout=20 effcurve=MyEff P-TCurve=MyPvsT Daily=IRRAD_DIA TDaily=TEMP_DIA
New PVSystem.GD_8a933a8ee781e6e4d40fea0a60bde61ede105b70169c72081a4ea75aa051fe49_1 phases=1 bus1=node_411442252.1.4 conn=wye kv=0.1270 pf=1 pmpp=1.55 kva=1.55 irradiance=1 temperature=25 %cutin=20 %cutout=20 effcurve=MyEff P-TCurve=MyPvsT Daily=IRRAD_DIA TDaily=TEMP_DIA
New PVSystem.GD_8a933a8ee781e6e4d40fea0a60bde61ede105b70169c72081a4ea75aa051fe49_2 phases=1 bus1=node_411442252.2.4 conn=wye kv=0.1270 pf=1 pmpp=1.55 kva=1.55 irradiance=1 temperature=25 %cutin=20 %cutout=20 effcurve=MyEff P-TCurve=MyPvsT Daily=IRRAD_DIA TDaily=TEMP_DIA
New PVSystem.GD_8a933a8ee781e6e4d40fea0a60bde61ede105b70169c72081a4ea75aa051fe49_3 phases=1 bus1=node_411442252.3.4 conn=wye kv=0.1270 pf=1 pmpp=1.55 kva=1.55 irradiance=1 temperature=25 %cutin=20 %cutout=20 effcurve=MyEff P-TCurve=MyPvsT Daily=IRRAD_DIA TDaily=TEMP_DIA
New PVSystem.GD_4bbe59862e040095ae88fef499a5c980653db17c7eb9a5628884a2df3a70030b_1 phases=1 bus1=node_414365197.1.4 conn=wye kv=0.1270 pf=1 pmpp=0.50 kva=0.50 irradiance=1 temperature=25 %cutin=20 %cutout=20 effcurve=MyEff P-TCurve=MyPvsT Daily=IRRAD_DIA TDaily=TEMP_DIA
New PVSystem.GD_4bbe59862e040095ae88fef499a5c980653db17c7eb9a5628884a2df3a70030b_2 phases=1 bus1=node_414365197.2.4 conn=wye kv=0.1270 pf=1 pmpp=0.50 kva=0.50 irradiance=1 temperature=25 %cutin=20 %cutout=20 effcurve=MyEff P-TCurve=MyPvsT Daily=IRRAD_DIA TDaily=TEMP_DIA
New PVSystem.GD_4bbe59862e040095ae88fef499a5c980653db17c7eb9a5628884a2df3a70030b_3 phases=1 bus1=node_414365197.3.4 conn=wye kv=0.1270 pf=1 pmpp=0.50 kva=0.50 irradiance=1 temperature=25 %cutin=20 %cutout=20 effcurve=MyEff P-TCurve=MyPvsT Daily=IRRAD_DIA TDaily=TEMP_DIA
New PVSystem.GD_ffe0754c4cc9ba5c50506694ae035c7ba37a9988eb38948def53d34c56936ebf_1 phases=1 bus1=node_411468625.1.4 conn=wye kv=0.1270 pf=1 pmpp=0.78 kva=0.78 irradiance=1 temperature=25 %cutin=20 %cutout=20 effcurve=MyEff P-TCurve=MyPvsT Daily=IRRAD_DIA TDaily=TEMP_DIA
New PVSystem.GD_ffe0754c4cc9ba5c50506694ae035c7ba37a9988eb38948def53d34c56936ebf_2 phases=1 bus1=node_411468625.2.4 conn=wye kv=0.1270 pf=1 pmpp=0.78 kva=0.78 irradiance=1 temperature=25 %cutin=20 %cutout=20 effcurve=MyEff P-TCurve=MyPvsT Daily=IRRAD_DIA TDaily=TEMP_DIA
New PVSystem.GD_ffe0754c4cc9ba5c50506694ae035c7ba37a9988eb38948def53d34c56936ebf_3 phases=1 bus1=node_411468625.3.4 conn=wye kv=0.1270 pf=1 pmpp=0.78 kva=0.78 irradiance=1 temperature=25 %cutin=20 %cutout=20 effcurve=MyEff P-TCurve=MyPvsT Daily=IRRAD_DIA TDaily=TEMP_DIA
New PVSystem.GD_a06a25cf07f8432d22d23f037028c9861184d1cf5eec68fb8f2998d575e7bf5a_1 phases=1 bus1=node_411468631.1.4 conn=wye kv=0.1270 pf=1 pmpp=3.30 kva=3.30 irradiance=1 temperature=25 %cutin=20 %cutout=20 effcurve=MyEff P-TCurve=MyPvsT Daily=IRRAD_DIA TDaily=TEMP_DIA
New PVSystem.GD_a06a25cf07f8432d22d23f037028c9861184d1cf5eec68fb8f2998d575e7bf5a_2 phases=1 bus1=node_411468631.2.4 conn=wye kv=0.1270 pf=1 pmpp=3.30 kva=3.30 irradiance=1 temperature=25 %cutin=20 %cutout=20 effcurve=MyEff P-TCurve=MyPvsT Daily=IRRAD_DIA TDaily=TEMP_DIA
New PVSystem.GD_a06a25cf07f8432d22d23f037028c9861184d1cf5eec68fb8f2998d575e7bf5a_3 phases=1 bus1=node_411468631.3.4 conn=wye kv=0.1270 pf=1 pmpp=3.30 kva=3.30 irradiance=1 temperature=25 %cutin=20 %cutout=20 effcurve=MyEff P-TCurve=MyPvsT Daily=IRRAD_DIA TDaily=TEMP_DIA
New PVSystem.GD_9a71ed4fd723620df58bbb52e4e62d6af427581a495f4a0ba3874d44eaf15a46_1 phases=1 bus1=node_411468631.1.4 conn=wye kv=0.1270 pf=1 pmpp=2.94 kva=2.94 irradiance=1 temperature=25 %cutin=20 %cutout=20 effcurve=MyEff P-TCurve=MyPvsT Daily=IRRAD_DIA TDaily=TEMP_DIA
New PVSystem.GD_9a71ed4fd723620df58bbb52e4e62d6af427581a495f4a0ba3874d44eaf15a46_2 phases=1 bus1=node_411468631.2.4 conn=wye kv=0.1270 pf=1 pmpp=2.94 kva=2.94 irradiance=1 temperature=25 %cutin=20 %cutout=20 effcurve=MyEff P-TCurve=MyPvsT Daily=IRRAD_DIA TDaily=TEMP_DIA
New PVSystem.GD_9a71ed4fd723620df58bbb52e4e62d6af427581a495f4a0ba3874d44eaf15a46_3 phases=1 bus1=node_411468631.3.4 conn=wye kv=0.1270 pf=1 pmpp=2.94 kva=2.94 irradiance=1 temperature=25 %cutin=20 %cutout=20 effcurve=MyEff P-TCurve=MyPvsT Daily=IRRAD_DIA TDaily=TEMP_DIA
New PVSystem.GD_2e0646f01ef5d264c4a9250a506749d8a10b5d881f1a438b039be7468cd8eb07_1 phases=1 bus1=node_411468631.1.4 conn=wye kv=0.1270 pf=1 pmpp=6.47 kva=6.47 irradiance=1 temperature=25 %cutin=20 %cutout=20 effcurve=MyEff P-TCurve=MyPvsT Daily=IRRAD_DIA TDaily=TEMP_DIA
New PVSystem.GD_2e0646f01ef5d264c4a9250a506749d8a10b5d881f1a438b039be7468cd8eb07_2 phases=1 bus1=node_411468631.2.4 conn=wye kv=0.1270 pf=1 pmpp=6.47 kva=6.47 irradiance=1 temperature=25 %cutin=20 %cutout=20 effcurve=MyEff P-TCurve=MyPvsT Daily=IRRAD_DIA TDaily=TEMP_DIA
New PVSystem.GD_2e0646f01ef5d264c4a9250a506749d8a10b5d881f1a438b039be7468cd8eb07_3 phases=1 bus1=node_411468631.3.4 conn=wye kv=0.1270 pf=1 pmpp=6.47 kva=6.47 irradiance=1 temperature=25 %cutin=20 %cutout=20 effcurve=MyEff P-TCurve=MyPvsT Daily=IRRAD_DIA TDaily=TEMP_DIA
New PVSystem.GD_780e616676bcd3dea3a3b637fc95539d68d755beb75089f319982f134fad520e_1 phases=1 bus1=node_411468631.1.4 conn=wye kv=0.1270 pf=1 pmpp=1.14 kva=1.14 irradiance=1 temperature=25 %cutin=20 %cutout=20 effcurve=MyEff P-TCurve=MyPvsT Daily=IRRAD_DIA TDaily=TEMP_DIA
New PVSystem.GD_780e616676bcd3dea3a3b637fc95539d68d755beb75089f319982f134fad520e_2 phases=1 bus1=node_411468631.2.4 conn=wye kv=0.1270 pf=1 pmpp=1.14 kva=1.14 irradiance=1 temperature=25 %cutin=20 %cutout=20 effcurve=MyEff P-TCurve=MyPvsT Daily=IRRAD_DIA TDaily=TEMP_DIA
New PVSystem.GD_780e616676bcd3dea3a3b637fc95539d68d755beb75089f319982f134fad520e_3 phases=1 bus1=node_411468631.3.4 conn=wye kv=0.1270 pf=1 pmpp=1.14 kva=1.14 irradiance=1 temperature=25 %cutin=20 %cutout=20 effcurve=MyEff P-TCurve=MyPvsT Daily=IRRAD_DIA TDaily=TEMP_DIA
New PVSystem.GD_cc8b317d301ea65e198f8811d03a9533591a52d518a28fbb8a89462900955f88_1 phases=1 bus1=node_411468631.1.4 conn=wye kv=0.1270 pf=1 pmpp=1.79 kva=1.79 irradiance=1 temperature=25 %cutin=20 %cutout=20 effcurve=MyEff P-TCurve=MyPvsT Daily=IRRAD_DIA TDaily=TEMP_DIA
New PVSystem.GD_cc8b317d301ea65e198f8811d03a9533591a52d518a28fbb8a89462900955f88_2 phases=1 bus1=node_411468631.2.4 conn=wye kv=0.1270 pf=1 pmpp=1.79 kva=1.79 irradiance=1 temperature=25 %cutin=20 %cutout=20 effcurve=MyEff P-TCurve=MyPvsT Daily=IRRAD_DIA TDaily=TEMP_DIA
New PVSystem.GD_cc8b317d301ea65e198f8811d03a9533591a52d518a28fbb8a89462900955f88_3 phases=1 bus1=node_411468631.3.4 conn=wye kv=0.1270 pf=1 pmpp=1.79 kva=1.79 irradiance=1 temperature=25 %cutin=20 %cutout=20 effcurve=MyEff P-TCurve=MyPvsT Daily=IRRAD_DIA TDaily=TEMP_DIA
New PVSystem.GD_a79987b6a7dbf8281ebfa921c2c27fb1cdef68b54c6b2be1503ff870a9dbdb8e_1 phases=1 bus1=node_411468631.1.4 conn=wye kv=0.1270 pf=1 pmpp=1.10 kva=1.10 irradiance=1 temperature=25 %cutin=20 %cutout=20 effcurve=MyEff P-TCurve=MyPvsT Daily=IRRAD_DIA TDaily=TEMP_DIA
New PVSystem.GD_a79987b6a7dbf8281ebfa921c2c27fb1cdef68b54c6b2be1503ff870a9dbdb8e_2 phases=1 bus1=node_411468631.2.4 conn=wye kv=0.1270 pf=1 pmpp=1.10 kva=1.10 irradiance=1 temperature=25 %cutin=20 %cutout=20 effcurve=MyEff P-TCurve=MyPvsT Daily=IRRAD_DIA TDaily=TEMP_DIA
New PVSystem.GD_a79987b6a7dbf8281ebfa921c2c27fb1cdef68b54c6b2be1503ff870a9dbdb8e_3 phases=1 bus1=node_411468631.3.4 conn=wye kv=0.1270 pf=1 pmpp=1.10 kva=1.10 irradiance=1 temperature=25 %cutin=20 %cutout=20 effcurve=MyEff P-TCurve=MyPvsT Daily=IRRAD_DIA TDaily=TEMP_DIA
New PVSystem.GD_1a511f3ac3faa95ce3bb12e9f067f46cecd490d5fd5f5895f4649b0ab3713941_1 phases=1 bus1=node_411468484.1.4 conn=wye kv=0.1270 pf=1 pmpp=0.99 kva=0.99 irradiance=1 temperature=25 %cutin=20 %cutout=20 effcurve=MyEff P-TCurve=MyPvsT Daily=IRRAD_DIA TDaily=TEMP_DIA
New PVSystem.GD_1a511f3ac3faa95ce3bb12e9f067f46cecd490d5fd5f5895f4649b0ab3713941_2 phases=1 bus1=node_411468484.2.4 conn=wye kv=0.1270 pf=1 pmpp=0.99 kva=0.99 irradiance=1 temperature=25 %cutin=20 %cutout=20 effcurve=MyEff P-TCurve=MyPvsT Daily=IRRAD_DIA TDaily=TEMP_DIA
New PVSystem.GD_1a511f3ac3faa95ce3bb12e9f067f46cecd490d5fd5f5895f4649b0ab3713941_3 phases=1 bus1=node_411468484.3.4 conn=wye kv=0.1270 pf=1 pmpp=0.99 kva=0.99 irradiance=1 temperature=25 %cutin=20 %cutout=20 effcurve=MyEff P-TCurve=MyPvsT Daily=IRRAD_DIA TDaily=TEMP_DIA
New PVSystem.GD_40fe7744eaa8bead989f720d4b6aa7aaa9a6e811068bb8d12e86353b9a8ad52b_1 phases=1 bus1=node_411468484.1.4 conn=wye kv=0.1270 pf=1 pmpp=0.58 kva=0.58 irradiance=1 temperature=25 %cutin=20 %cutout=20 effcurve=MyEff P-TCurve=MyPvsT Daily=IRRAD_DIA TDaily=TEMP_DIA
New PVSystem.GD_40fe7744eaa8bead989f720d4b6aa7aaa9a6e811068bb8d12e86353b9a8ad52b_2 phases=1 bus1=node_411468484.2.4 conn=wye kv=0.1270 pf=1 pmpp=0.58 kva=0.58 irradiance=1 temperature=25 %cutin=20 %cutout=20 effcurve=MyEff P-TCurve=MyPvsT Daily=IRRAD_DIA TDaily=TEMP_DIA
New PVSystem.GD_40fe7744eaa8bead989f720d4b6aa7aaa9a6e811068bb8d12e86353b9a8ad52b_3 phases=1 bus1=node_411468484.3.4 conn=wye kv=0.1270 pf=1 pmpp=0.58 kva=0.58 irradiance=1 temperature=25 %cutin=20 %cutout=20 effcurve=MyEff P-TCurve=MyPvsT Daily=IRRAD_DIA TDaily=TEMP_DIA
New PVSystem.GD_23443ca5c3a62e214704785b39ac8fb408e43206c3ca20df25585630da147f7b_1 phases=1 bus1=node_414365080.1.4 conn=wye kv=0.1270 pf=1 pmpp=0.33 kva=0.33 irradiance=1 temperature=25 %cutin=20 %cutout=20 effcurve=MyEff P-TCurve=MyPvsT Daily=IRRAD_DIA TDaily=TEMP_DIA
New PVSystem.GD_23443ca5c3a62e214704785b39ac8fb408e43206c3ca20df25585630da147f7b_2 phases=1 bus1=node_414365080.2.4 conn=wye kv=0.1270 pf=1 pmpp=0.33 kva=0.33 irradiance=1 temperature=25 %cutin=20 %cutout=20 effcurve=MyEff P-TCurve=MyPvsT Daily=IRRAD_DIA TDaily=TEMP_DIA
New PVSystem.GD_23443ca5c3a62e214704785b39ac8fb408e43206c3ca20df25585630da147f7b_3 phases=1 bus1=node_414365080.3.4 conn=wye kv=0.1270 pf=1 pmpp=0.33 kva=0.33 irradiance=1 temperature=25 %cutin=20 %cutout=20 effcurve=MyEff P-TCurve=MyPvsT Daily=IRRAD_DIA TDaily=TEMP_DIA
New PVSystem.GD_77ff0a16f10171dce05ef00ac764f7c4691d34d8bb886cb812a649dba26cf712_1 phases=1 bus1=node_414365080.1.4 conn=wye kv=0.1270 pf=1 pmpp=0.46 kva=0.46 irradiance=1 temperature=25 %cutin=20 %cutout=20 effcurve=MyEff P-TCurve=MyPvsT Daily=IRRAD_DIA TDaily=TEMP_DIA
New PVSystem.GD_77ff0a16f10171dce05ef00ac764f7c4691d34d8bb886cb812a649dba26cf712_2 phases=1 bus1=node_414365080.2.4 conn=wye kv=0.1270 pf=1 pmpp=0.46 kva=0.46 irradiance=1 temperature=25 %cutin=20 %cutout=20 effcurve=MyEff P-TCurve=MyPvsT Daily=IRRAD_DIA TDaily=TEMP_DIA
New PVSystem.GD_77ff0a16f10171dce05ef00ac764f7c4691d34d8bb886cb812a649dba26cf712_3 phases=1 bus1=node_414365080.3.4 conn=wye kv=0.1270 pf=1 pmpp=0.46 kva=0.46 irradiance=1 temperature=25 %cutin=20 %cutout=20 effcurve=MyEff P-TCurve=MyPvsT Daily=IRRAD_DIA TDaily=TEMP_DIA
New PVSystem.GD_5b3a9f1fb693dbf989b54ad49a87c52f060498ee314d0689b8c47cd9a454de52_1 phases=1 bus1=node_414365080.1.4 conn=wye kv=0.1270 pf=1 pmpp=1.60 kva=1.60 irradiance=1 temperature=25 %cutin=20 %cutout=20 effcurve=MyEff P-TCurve=MyPvsT Daily=IRRAD_DIA TDaily=TEMP_DIA
New PVSystem.GD_5b3a9f1fb693dbf989b54ad49a87c52f060498ee314d0689b8c47cd9a454de52_2 phases=1 bus1=node_414365080.2.4 conn=wye kv=0.1270 pf=1 pmpp=1.60 kva=1.60 irradiance=1 temperature=25 %cutin=20 %cutout=20 effcurve=MyEff P-TCurve=MyPvsT Daily=IRRAD_DIA TDaily=TEMP_DIA
New PVSystem.GD_5b3a9f1fb693dbf989b54ad49a87c52f060498ee314d0689b8c47cd9a454de52_3 phases=1 bus1=node_414365080.3.4 conn=wye kv=0.1270 pf=1 pmpp=1.60 kva=1.60 irradiance=1 temperature=25 %cutin=20 %cutout=20 effcurve=MyEff P-TCurve=MyPvsT Daily=IRRAD_DIA TDaily=TEMP_DIA
New PVSystem.GD_a4663a00bfb3b44ee6fdeefd46f2654149c1c10f921ebf5abad50a5d08388b6e_1 phases=1 bus1=node_411468955.1.4 conn=wye kv=0.1270 pf=1 pmpp=1.06 kva=1.06 irradiance=1 temperature=25 %cutin=20 %cutout=20 effcurve=MyEff P-TCurve=MyPvsT Daily=IRRAD_DIA TDaily=TEMP_DIA
New PVSystem.GD_a4663a00bfb3b44ee6fdeefd46f2654149c1c10f921ebf5abad50a5d08388b6e_2 phases=1 bus1=node_411468955.2.4 conn=wye kv=0.1270 pf=1 pmpp=1.06 kva=1.06 irradiance=1 temperature=25 %cutin=20 %cutout=20 effcurve=MyEff P-TCurve=MyPvsT Daily=IRRAD_DIA TDaily=TEMP_DIA
New PVSystem.GD_a4663a00bfb3b44ee6fdeefd46f2654149c1c10f921ebf5abad50a5d08388b6e_3 phases=1 bus1=node_411468955.3.4 conn=wye kv=0.1270 pf=1 pmpp=1.06 kva=1.06 irradiance=1 temperature=25 %cutin=20 %cutout=20 effcurve=MyEff P-TCurve=MyPvsT Daily=IRRAD_DIA TDaily=TEMP_DIA
New PVSystem.GD_7f0bad803a8a3d1e38df96a018253a0489386f17e448095ba195ab6d5c3fbcb6_1 phases=1 bus1=node_411468955.1.4 conn=wye kv=0.1270 pf=1 pmpp=0.65 kva=0.65 irradiance=1 temperature=25 %cutin=20 %cutout=20 effcurve=MyEff P-TCurve=MyPvsT Daily=IRRAD_DIA TDaily=TEMP_DIA
New PVSystem.GD_7f0bad803a8a3d1e38df96a018253a0489386f17e448095ba195ab6d5c3fbcb6_2 phases=1 bus1=node_411468955.2.4 conn=wye kv=0.1270 pf=1 pmpp=0.65 kva=0.65 irradiance=1 temperature=25 %cutin=20 %cutout=20 effcurve=MyEff P-TCurve=MyPvsT Daily=IRRAD_DIA TDaily=TEMP_DIA
New PVSystem.GD_7f0bad803a8a3d1e38df96a018253a0489386f17e448095ba195ab6d5c3fbcb6_3 phases=1 bus1=node_411468955.3.4 conn=wye kv=0.1270 pf=1 pmpp=0.65 kva=0.65 irradiance=1 temperature=25 %cutin=20 %cutout=20 effcurve=MyEff P-TCurve=MyPvsT Daily=IRRAD_DIA TDaily=TEMP_DIA
New PVSystem.GD_6f2f2ce73d7d6a1142d0d6b3db31845fcfeefa92040a4f3f9ee1f286181a0a4e_1 phases=1 bus1=node_411468955.1.4 conn=wye kv=0.1270 pf=1 pmpp=1.70 kva=1.70 irradiance=1 temperature=25 %cutin=20 %cutout=20 effcurve=MyEff P-TCurve=MyPvsT Daily=IRRAD_DIA TDaily=TEMP_DIA
New PVSystem.GD_6f2f2ce73d7d6a1142d0d6b3db31845fcfeefa92040a4f3f9ee1f286181a0a4e_2 phases=1 bus1=node_411468955.2.4 conn=wye kv=0.1270 pf=1 pmpp=1.70 kva=1.70 irradiance=1 temperature=25 %cutin=20 %cutout=20 effcurve=MyEff P-TCurve=MyPvsT Daily=IRRAD_DIA TDaily=TEMP_DIA
New PVSystem.GD_6f2f2ce73d7d6a1142d0d6b3db31845fcfeefa92040a4f3f9ee1f286181a0a4e_3 phases=1 bus1=node_411468955.3.4 conn=wye kv=0.1270 pf=1 pmpp=1.70 kva=1.70 irradiance=1 temperature=25 %cutin=20 %cutout=20 effcurve=MyEff P-TCurve=MyPvsT Daily=IRRAD_DIA TDaily=TEMP_DIA
New PVSystem.GD_58712e69f3869379fda9f73716d75488b1318625c9062f17d9c8e9245823262e_1 phases=1 bus1=node_411468955.1.4 conn=wye kv=0.1270 pf=1 pmpp=2.46 kva=2.46 irradiance=1 temperature=25 %cutin=20 %cutout=20 effcurve=MyEff P-TCurve=MyPvsT Daily=IRRAD_DIA TDaily=TEMP_DIA
New PVSystem.GD_58712e69f3869379fda9f73716d75488b1318625c9062f17d9c8e9245823262e_2 phases=1 bus1=node_411468955.2.4 conn=wye kv=0.1270 pf=1 pmpp=2.46 kva=2.46 irradiance=1 temperature=25 %cutin=20 %cutout=20 effcurve=MyEff P-TCurve=MyPvsT Daily=IRRAD_DIA TDaily=TEMP_DIA
New PVSystem.GD_58712e69f3869379fda9f73716d75488b1318625c9062f17d9c8e9245823262e_3 phases=1 bus1=node_411468955.3.4 conn=wye kv=0.1270 pf=1 pmpp=2.46 kva=2.46 irradiance=1 temperature=25 %cutin=20 %cutout=20 effcurve=MyEff P-TCurve=MyPvsT Daily=IRRAD_DIA TDaily=TEMP_DIA
New PVSystem.GD_69f37d84f2e9f769d88bdcca896d7ae358e4d328ebf40d6ee562dd1c9485356d_1 phases=1 bus1=node_411468955.1.4 conn=wye kv=0.1270 pf=1 pmpp=4.26 kva=4.26 irradiance=1 temperature=25 %cutin=20 %cutout=20 effcurve=MyEff P-TCurve=MyPvsT Daily=IRRAD_DIA TDaily=TEMP_DIA
New PVSystem.GD_69f37d84f2e9f769d88bdcca896d7ae358e4d328ebf40d6ee562dd1c9485356d_2 phases=1 bus1=node_411468955.2.4 conn=wye kv=0.1270 pf=1 pmpp=4.26 kva=4.26 irradiance=1 temperature=25 %cutin=20 %cutout=20 effcurve=MyEff P-TCurve=MyPvsT Daily=IRRAD_DIA TDaily=TEMP_DIA
New PVSystem.GD_69f37d84f2e9f769d88bdcca896d7ae358e4d328ebf40d6ee562dd1c9485356d_3 phases=1 bus1=node_411468955.3.4 conn=wye kv=0.1270 pf=1 pmpp=4.26 kva=4.26 irradiance=1 temperature=25 %cutin=20 %cutout=20 effcurve=MyEff P-TCurve=MyPvsT Daily=IRRAD_DIA TDaily=TEMP_DIA
New PVSystem.GD_cc455a224f1a79978ffce5cea4f24429abecdaa3cd884de6a4a150b08dc2adf3_1 phases=1 bus1=node_411468955.1.4 conn=wye kv=0.1270 pf=1 pmpp=0.59 kva=0.59 irradiance=1 temperature=25 %cutin=20 %cutout=20 effcurve=MyEff P-TCurve=MyPvsT Daily=IRRAD_DIA TDaily=TEMP_DIA
New PVSystem.GD_cc455a224f1a79978ffce5cea4f24429abecdaa3cd884de6a4a150b08dc2adf3_2 phases=1 bus1=node_411468955.2.4 conn=wye kv=0.1270 pf=1 pmpp=0.59 kva=0.59 irradiance=1 temperature=25 %cutin=20 %cutout=20 effcurve=MyEff P-TCurve=MyPvsT Daily=IRRAD_DIA TDaily=TEMP_DIA
New PVSystem.GD_cc455a224f1a79978ffce5cea4f24429abecdaa3cd884de6a4a150b08dc2adf3_3 phases=1 bus1=node_411468955.3.4 conn=wye kv=0.1270 pf=1 pmpp=0.59 kva=0.59 irradiance=1 temperature=25 %cutin=20 %cutout=20 effcurve=MyEff P-TCurve=MyPvsT Daily=IRRAD_DIA TDaily=TEMP_DIA
New PVSystem.GD_296e8cfcc2063070a60ba15d05f0479041f4f4c47f2d67d59a41d9721f6fcde9_1 phases=1 bus1=node_411468955.1.4 conn=wye kv=0.1270 pf=1 pmpp=1.65 kva=1.65 irradiance=1 temperature=25 %cutin=20 %cutout=20 effcurve=MyEff P-TCurve=MyPvsT Daily=IRRAD_DIA TDaily=TEMP_DIA
New PVSystem.GD_296e8cfcc2063070a60ba15d05f0479041f4f4c47f2d67d59a41d9721f6fcde9_2 phases=1 bus1=node_411468955.2.4 conn=wye kv=0.1270 pf=1 pmpp=1.65 kva=1.65 irradiance=1 temperature=25 %cutin=20 %cutout=20 effcurve=MyEff P-TCurve=MyPvsT Daily=IRRAD_DIA TDaily=TEMP_DIA
New PVSystem.GD_296e8cfcc2063070a60ba15d05f0479041f4f4c47f2d67d59a41d9721f6fcde9_3 phases=1 bus1=node_411468955.3.4 conn=wye kv=0.1270 pf=1 pmpp=1.65 kva=1.65 irradiance=1 temperature=25 %cutin=20 %cutout=20 effcurve=MyEff P-TCurve=MyPvsT Daily=IRRAD_DIA TDaily=TEMP_DIA
New PVSystem.GD_b6af5afa6a47004b8bc7ad1c03c843c9deaeecd5e6d71e3fd4752826109cd7d7_1 phases=1 bus1=node_414365083.1.4 conn=wye kv=0.1270 pf=1 pmpp=0.46 kva=0.46 irradiance=1 temperature=25 %cutin=20 %cutout=20 effcurve=MyEff P-TCurve=MyPvsT Daily=IRRAD_DIA TDaily=TEMP_DIA
...
